# Name file for MODFLOW-2005, generated by Flopy version 3.9.3.
#xll:0.0; yll:0.0; rotation:0.0; units:meters; lenuni:2; start_datetime:1-1-1970
LIST               2  pumping_well.list
DIS               11  pumping_well.dis
BAS6              13  pumping_well.bas
LPF               15  pumping_well.lpf
WEL               20  pumping_well.wel
PCG               27  pumping_well.pcg
OC                14  pumping_well.oc
DATA(BINARY)      51  pumping_well.hds REPLACE
