# CHD package for MODFLOW-2005 generated by Flopy 3.9.3
       100
       100         0 # stress period 1
         1         1         1             2.0             2.0
         1         1        50             2.0             2.0
         1         2         1             2.0             2.0
         1         2        50             2.0             2.0
         1         3         1             2.0             2.0
         1         3        50             2.0             2.0
         1         4         1             2.0             2.0
         1         4        50             2.0             2.0
         1         5         1             2.0             2.0
         1         5        50             2.0             2.0
         1         6         1             2.0             2.0
         1         6        50             2.0             2.0
         1         7         1             2.0             2.0
         1         7        50             2.0             2.0
         1         8         1             2.0             2.0
         1         8        50             2.0             2.0
         1         9         1             2.0             2.0
         1         9        50             2.0             2.0
         1        10         1             2.0             2.0
         1        10        50             2.0             2.0
         1        11         1             2.0             2.0
         1        11        50             2.0             2.0
         1        12         1             2.0             2.0
         1        12        50             2.0             2.0
         1        13         1             2.0             2.0
         1        13        50             2.0             2.0
         1        14         1             2.0             2.0
         1        14        50             2.0             2.0
         1        15         1             2.0             2.0
         1        15        50             2.0             2.0
         1        16         1             2.0             2.0
         1        16        50             2.0             2.0
         1        17         1             2.0             2.0
         1        17        50             2.0             2.0
         1        18         1             2.0             2.0
         1        18        50             2.0             2.0
         1        19         1             2.0             2.0
         1        19        50             2.0             2.0
         1        20         1             2.0             2.0
         1        20        50             2.0             2.0
         1        21         1             2.0             2.0
         1        21        50             2.0             2.0
         1        22         1             2.0             2.0
         1        22        50             2.0             2.0
         1        23         1             2.0             2.0
         1        23        50             2.0             2.0
         1        24         1             2.0             2.0
         1        24        50             2.0             2.0
         1        25         1             2.0             2.0
         1        25        50             2.0             2.0
         1        26         1             2.0             2.0
         1        26        50             2.0             2.0
         1        27         1             2.0             2.0
         1        27        50             2.0             2.0
         1        28         1             2.0             2.0
         1        28        50             2.0             2.0
         1        29         1             2.0             2.0
         1        29        50             2.0             2.0
         1        30         1             2.0             2.0
         1        30        50             2.0             2.0
         1        31         1             2.0             2.0
         1        31        50             2.0             2.0
         1        32         1             2.0             2.0
         1        32        50             2.0             2.0
         1        33         1             2.0             2.0
         1        33        50             2.0             2.0
         1        34         1             2.0             2.0
         1        34        50             2.0             2.0
         1        35         1             2.0             2.0
         1        35        50             2.0             2.0
         1        36         1             2.0             2.0
         1        36        50             2.0             2.0
         1        37         1             2.0             2.0
         1        37        50             2.0             2.0
         1        38         1             2.0             2.0
         1        38        50             2.0             2.0
         1        39         1             2.0             2.0
         1        39        50             2.0             2.0
         1        40         1             2.0             2.0
         1        40        50             2.0             2.0
         1        41         1             2.0             2.0
         1        41        50             2.0             2.0
         1        42         1             2.0             2.0
         1        42        50             2.0             2.0
         1        43         1             2.0             2.0
         1        43        50             2.0             2.0
         1        44         1             2.0             2.0
         1        44        50             2.0             2.0
         1        45         1             2.0             2.0
         1        45        50             2.0             2.0
         1        46         1             2.0             2.0
         1        46        50             2.0             2.0
         1        47         1             2.0             2.0
         1        47        50             2.0             2.0
         1        48         1             2.0             2.0
         1        48        50             2.0             2.0
         1        49         1             2.0             2.0
         1        49        50             2.0             2.0
         1        50         1             2.0             2.0
         1        50        50             2.0             2.0
        -1         0 # stress period 2
        -1         0 # stress period 3
