# RIV package for MODFLOW-2005 generated by Flopy 3.9.3
        50        53
        50         0 # stress period 1
         1         1        26             1.0          8000.0             0.0
         1         2        26             1.0          8000.0             0.0
         1         3        26             1.0          8000.0             0.0
         1         4        26             1.0          8000.0             0.0
         1         5        26             1.0          8000.0             0.0
         1         6        26             1.0          8000.0             0.0
         1         7        26             1.0          8000.0             0.0
         1         8        26             1.0          8000.0             0.0
         1         9        26             1.0          8000.0             0.0
         1        10        26             1.0          8000.0             0.0
         1        11        26             1.0          8000.0             0.0
         1        12        26             1.0          8000.0             0.0
         1        13        26             1.0          8000.0             0.0
         1        14        26             1.0          8000.0             0.0
         1        15        26             1.0          8000.0             0.0
         1        16        26             1.0          8000.0             0.0
         1        17        26             1.0          8000.0             0.0
         1        18        26             1.0          8000.0             0.0
         1        19        26             1.0          8000.0             0.0
         1        20        26             1.0          8000.0             0.0
         1        21        26             1.0          8000.0             0.0
         1        22        26             1.0          8000.0             0.0
         1        23        26             1.0          8000.0             0.0
         1        24        26             1.0          8000.0             0.0
         1        25        26             1.0          8000.0             0.0
         1        26        26             1.0          8000.0             0.0
         1        27        26             1.0          8000.0             0.0
         1        28        26             1.0          8000.0             0.0
         1        29        26             1.0          8000.0             0.0
         1        30        26             1.0          8000.0             0.0
         1        31        26             1.0          8000.0             0.0
         1        32        26             1.0          8000.0             0.0
         1        33        26             1.0          8000.0             0.0
         1        34        26             1.0          8000.0             0.0
         1        35        26             1.0          8000.0             0.0
         1        36        26             1.0          8000.0             0.0
         1        37        26             1.0          8000.0             0.0
         1        38        26             1.0          8000.0             0.0
         1        39        26             1.0          8000.0             0.0
         1        40        26             1.0          8000.0             0.0
         1        41        26             1.0          8000.0             0.0
         1        42        26             1.0          8000.0             0.0
         1        43        26             1.0          8000.0             0.0
         1        44        26             1.0          8000.0             0.0
         1        45        26             1.0          8000.0             0.0
         1        46        26             1.0          8000.0             0.0
         1        47        26             1.0          8000.0             0.0
         1        48        26             1.0          8000.0             0.0
         1        49        26             1.0          8000.0             0.0
         1        50        26             1.0          8000.0             0.0
        50         0 # stress period 2
         1         1        26             5.0          8000.0             0.0
         1         2        26             5.0          8000.0             0.0
         1         3        26             5.0          8000.0             0.0
         1         4        26             5.0          8000.0             0.0
         1         5        26             5.0          8000.0             0.0
         1         6        26             5.0          8000.0             0.0
         1         7        26             5.0          8000.0             0.0
         1         8        26             5.0          8000.0             0.0
         1         9        26             5.0          8000.0             0.0
         1        10        26             5.0          8000.0             0.0
         1        11        26             5.0          8000.0             0.0
         1        12        26             5.0          8000.0             0.0
         1        13        26             5.0          8000.0             0.0
         1        14        26             5.0          8000.0             0.0
         1        15        26             5.0          8000.0             0.0
         1        16        26             5.0          8000.0             0.0
         1        17        26             5.0          8000.0             0.0
         1        18        26             5.0          8000.0             0.0
         1        19        26             5.0          8000.0             0.0
         1        20        26             5.0          8000.0             0.0
         1        21        26             5.0          8000.0             0.0
         1        22        26             5.0          8000.0             0.0
         1        23        26             5.0          8000.0             0.0
         1        24        26             5.0          8000.0             0.0
         1        25        26             5.0          8000.0             0.0
         1        26        26             5.0          8000.0             0.0
         1        27        26             5.0          8000.0             0.0
         1        28        26             5.0          8000.0             0.0
         1        29        26             5.0          8000.0             0.0
         1        30        26             5.0          8000.0             0.0
         1        31        26             5.0          8000.0             0.0
         1        32        26             5.0          8000.0             0.0
         1        33        26             5.0          8000.0             0.0
         1        34        26             5.0          8000.0             0.0
         1        35        26             5.0          8000.0             0.0
         1        36        26             5.0          8000.0             0.0
         1        37        26             5.0          8000.0             0.0
         1        38        26             5.0          8000.0             0.0
         1        39        26             5.0          8000.0             0.0
         1        40        26             5.0          8000.0             0.0
         1        41        26             5.0          8000.0             0.0
         1        42        26             5.0          8000.0             0.0
         1        43        26             5.0          8000.0             0.0
         1        44        26             5.0          8000.0             0.0
         1        45        26             5.0          8000.0             0.0
         1        46        26             5.0          8000.0             0.0
         1        47        26             5.0          8000.0             0.0
         1        48        26             5.0          8000.0             0.0
         1        49        26             5.0          8000.0             0.0
         1        50        26             5.0          8000.0             0.0
        50         0 # stress period 3
         1         1        26             1.0          8000.0             0.0
         1         2        26             1.0          8000.0             0.0
         1         3        26             1.0          8000.0             0.0
         1         4        26             1.0          8000.0             0.0
         1         5        26             1.0          8000.0             0.0
         1         6        26             1.0          8000.0             0.0
         1         7        26             1.0          8000.0             0.0
         1         8        26             1.0          8000.0             0.0
         1         9        26             1.0          8000.0             0.0
         1        10        26             1.0          8000.0             0.0
         1        11        26             1.0          8000.0             0.0
         1        12        26             1.0          8000.0             0.0
         1        13        26             1.0          8000.0             0.0
         1        14        26             1.0          8000.0             0.0
         1        15        26             1.0          8000.0             0.0
         1        16        26             1.0          8000.0             0.0
         1        17        26             1.0          8000.0             0.0
         1        18        26             1.0          8000.0             0.0
         1        19        26             1.0          8000.0             0.0
         1        20        26             1.0          8000.0             0.0
         1        21        26             1.0          8000.0             0.0
         1        22        26             1.0          8000.0             0.0
         1        23        26             1.0          8000.0             0.0
         1        24        26             1.0          8000.0             0.0
         1        25        26             1.0          8000.0             0.0
         1        26        26             1.0          8000.0             0.0
         1        27        26             1.0          8000.0             0.0
         1        28        26             1.0          8000.0             0.0
         1        29        26             1.0          8000.0             0.0
         1        30        26             1.0          8000.0             0.0
         1        31        26             1.0          8000.0             0.0
         1        32        26             1.0          8000.0             0.0
         1        33        26             1.0          8000.0             0.0
         1        34        26             1.0          8000.0             0.0
         1        35        26             1.0          8000.0             0.0
         1        36        26             1.0          8000.0             0.0
         1        37        26             1.0          8000.0             0.0
         1        38        26             1.0          8000.0             0.0
         1        39        26             1.0          8000.0             0.0
         1        40        26             1.0          8000.0             0.0
         1        41        26             1.0          8000.0             0.0
         1        42        26             1.0          8000.0             0.0
         1        43        26             1.0          8000.0             0.0
         1        44        26             1.0          8000.0             0.0
         1        45        26             1.0          8000.0             0.0
         1        46        26             1.0          8000.0             0.0
         1        47        26             1.0          8000.0             0.0
         1        48        26             1.0          8000.0             0.0
         1        49        26             1.0          8000.0             0.0
         1        50        26             1.0          8000.0             0.0
