# LPF package for MODFLOW-2005 generated by Flopy 3.9.3
         0    -1E+30         0  
         1
         0
   1.000000E+00
         0
         0
INTERNAL               1  (10E15.6) -1 #hk layer 1                    
   1.099343E+01   9.723472E+00   1.129538E+01   1.304606E+01   9.531693E+00   9.531726E+00   1.315843E+01   1.153487E+01   9.061051E+00   1.108512E+01
   9.073165E+00   9.068541E+00   1.048392E+01   6.173440E+00   6.550164E+00   8.875425E+00   7.974338E+00   1.062849E+01   8.183951E+00   7.175393E+00
   1.293130E+01   9.548448E+00   1.013506E+01   7.150504E+00   8.911235E+00   1.022185E+01   7.698013E+00   1.075140E+01   8.798722E+00   9.416613E+00
   8.796587E+00   1.370456E+01   9.973005E+00   7.884578E+00   1.164509E+01   7.558313E+00   1.041773E+01   6.080660E+00   7.343628E+00   1.039372E+01
   1.147693E+01   1.034274E+01   9.768703E+00   9.397793E+00   7.042956E+00   8.560311E+00   9.078722E+00   1.211424E+01   1.068724E+01   6.473920E+00
   1.064817E+01   9.229836E+00   8.646156E+00   1.122335E+01   1.206200E+01   1.186256E+01   8.321565E+00   9.381576E+00   1.066253E+01   1.195109E+01
   9.041652E+00   9.628682E+00   7.787330E+00   7.607587E+00   1.162505E+01   1.271248E+01   9.855980E+00   1.200707E+01   1.072327E+01   8.709761E+00
   1.072279E+01   1.307607E+01   9.928348E+00   1.312929E+01   4.760510E+00   1.164380E+01   1.017409E+01   9.401985E+00   1.018352E+01   6.024862E+00
   9.560657E+00   1.071422E+01   1.295579E+01   8.963460E+00   8.383013E+00   8.996486E+00   1.183080E+01   1.065750E+01   8.940479E+00   1.102654E+01
   1.019415E+01   1.193729E+01   8.595894E+00   9.344676E+00   9.215784E+00   7.072970E+00   1.059224E+01   1.052211E+01   1.001023E+01   9.530826E+00
CONSTANT    1.000000E+00                           #vka1                          
