# Name file for MODFLOW-2005, generated by Flopy version 3.9.3.
#xll:0.0; yll:0.0; rotation:0.0; units:meters; lenuni:2; start_datetime:1-1-1970
LIST               2  spatial_gradient.list
DIS               11  spatial_gradient.dis
BAS6              13  spatial_gradient.bas
LPF               15  spatial_gradient.lpf
PCG               27  spatial_gradient.pcg
OC                14  spatial_gradient.oc
DATA(BINARY)      51  spatial_gradient.hds REPLACE
