# LPF package for MODFLOW-2005 generated by Flopy 3.9.3
         0    -1E+30         0  
         1
         0
   1.000000E+00
         0
         0
INTERNAL               1  (10E15.6) -1 #hk layer 1                    
   2.000000E+00   4.000000E+00   6.000000E+00   8.000000E+00   1.000000E+01   1.200000E+01   1.400000E+01   1.600000E+01   1.800000E+01   2.000000E+01
   2.000000E+00   4.000000E+00   6.000000E+00   8.000000E+00   1.000000E+01   1.200000E+01   1.400000E+01   1.600000E+01   1.800000E+01   2.000000E+01
   2.000000E+00   4.000000E+00   6.000000E+00   8.000000E+00   1.000000E+01   1.200000E+01   1.400000E+01   1.600000E+01   1.800000E+01   2.000000E+01
   2.000000E+00   4.000000E+00   6.000000E+00   8.000000E+00   1.000000E+01   1.200000E+01   1.400000E+01   1.600000E+01   1.800000E+01   2.000000E+01
   2.000000E+00   4.000000E+00   6.000000E+00   8.000000E+00   1.000000E+01   1.200000E+01   1.400000E+01   1.600000E+01   1.800000E+01   2.000000E+01
   2.000000E+00   4.000000E+00   6.000000E+00   8.000000E+00   1.000000E+01   1.200000E+01   1.400000E+01   1.600000E+01   1.800000E+01   2.000000E+01
   2.000000E+00   4.000000E+00   6.000000E+00   8.000000E+00   1.000000E+01   1.200000E+01   1.400000E+01   1.600000E+01   1.800000E+01   2.000000E+01
   2.000000E+00   4.000000E+00   6.000000E+00   8.000000E+00   1.000000E+01   1.200000E+01   1.400000E+01   1.600000E+01   1.800000E+01   2.000000E+01
   2.000000E+00   4.000000E+00   6.000000E+00   8.000000E+00   1.000000E+01   1.200000E+01   1.400000E+01   1.600000E+01   1.800000E+01   2.000000E+01
   2.000000E+00   4.000000E+00   6.000000E+00   8.000000E+00   1.000000E+01   1.200000E+01   1.400000E+01   1.600000E+01   1.800000E+01   2.000000E+01
CONSTANT    1.000000E+00                           #vka1                          
