# Name file for MODFLOW-2005, generated by Flopy version 3.9.3.
#xll:0.0; yll:0.0; rotation:0.0; units:meters; lenuni:2; start_datetime:1-1-1970
LIST               2  geometry_change.list
DIS               11  geometry_change.dis
BAS6              13  geometry_change.bas
LPF               15  geometry_change.lpf
PCG               27  geometry_change.pcg
OC                14  geometry_change.oc
DATA(BINARY)      51  geometry_change.hds REPLACE
