# DIS package for MODFLOW-2005 generated by Flopy 3.9.3
         1        10        10         1         4         2
  0
INTERNAL               1  (10E15.6) -1 #delr                          
   1.000000E+01   1.000000E+01   1.000000E+01   1.000000E+01   1.000000E+01   1.000000E+01   1.000000E+01   1.000000E+01   1.000000E+01   1.000000E+01
INTERNAL               1  (10E15.6) -1 #delc                          
   1.000000E+01   1.000000E+01   1.000000E+01   1.000000E+01   1.000000E+01   1.000000E+01   1.000000E+01   1.000000E+01   1.000000E+01   1.000000E+01
INTERNAL               1  (10E15.6) -1 #model_top                     
   5.000000E-01   3.888889E-01   2.777778E-01   1.666667E-01   5.555556E-02  -5.555556E-02  -1.666667E-01  -2.777778E-01  -3.888889E-01  -5.000000E-01
   5.000000E-01   3.888889E-01   2.777778E-01   1.666667E-01   5.555556E-02  -5.555556E-02  -1.666667E-01  -2.777778E-01  -3.888889E-01  -5.000000E-01
   5.000000E-01   3.888889E-01   2.777778E-01   1.666667E-01   5.555556E-02  -5.555556E-02  -1.666667E-01  -2.777778E-01  -3.888889E-01  -5.000000E-01
   5.000000E-01   3.888889E-01   2.777778E-01   1.666667E-01   5.555556E-02  -5.555556E-02  -1.666667E-01  -2.777778E-01  -3.888889E-01  -5.000000E-01
   5.000000E-01   3.888889E-01   2.777778E-01   1.666667E-01   5.555556E-02  -5.555556E-02  -1.666667E-01  -2.777778E-01  -3.888889E-01  -5.000000E-01
   5.000000E-01   3.888889E-01   2.777778E-01   1.666667E-01   5.555556E-02  -5.555556E-02  -1.666667E-01  -2.777778E-01  -3.888889E-01  -5.000000E-01
   5.000000E-01   3.888889E-01   2.777778E-01   1.666667E-01   5.555556E-02  -5.555556E-02  -1.666667E-01  -2.777778E-01  -3.888889E-01  -5.000000E-01
   5.000000E-01   3.888889E-01   2.777778E-01   1.666667E-01   5.555556E-02  -5.555556E-02  -1.666667E-01  -2.777778E-01  -3.888889E-01  -5.000000E-01
   5.000000E-01   3.888889E-01   2.777778E-01   1.666667E-01   5.555556E-02  -5.555556E-02  -1.666667E-01  -2.777778E-01  -3.888889E-01  -5.000000E-01
   5.000000E-01   3.888889E-01   2.777778E-01   1.666667E-01   5.555556E-02  -5.555556E-02  -1.666667E-01  -2.777778E-01  -3.888889E-01  -5.000000E-01
INTERNAL               1  (10E15.6) -1 #botm layer 1                  
  -5.020000E+01  -5.017778E+01  -5.015556E+01  -5.013334E+01  -5.011111E+01  -5.008889E+01  -5.006667E+01  -5.004445E+01  -5.002222E+01  -5.000000E+01
  -5.020000E+01  -5.017778E+01  -5.015556E+01  -5.013334E+01  -5.011111E+01  -5.008889E+01  -5.006667E+01  -5.004445E+01  -5.002222E+01  -5.000000E+01
  -5.020000E+01  -5.017778E+01  -5.015556E+01  -5.013334E+01  -5.011111E+01  -5.008889E+01  -5.006667E+01  -5.004445E+01  -5.002222E+01  -5.000000E+01
  -5.020000E+01  -5.017778E+01  -5.015556E+01  -5.013334E+01  -5.011111E+01  -5.008889E+01  -5.006667E+01  -5.004445E+01  -5.002222E+01  -5.000000E+01
  -5.020000E+01  -5.017778E+01  -5.015556E+01  -5.013334E+01  -5.011111E+01  -5.008889E+01  -5.006667E+01  -5.004445E+01  -5.002222E+01  -5.000000E+01
  -5.020000E+01  -5.017778E+01  -5.015556E+01  -5.013334E+01  -5.011111E+01  -5.008889E+01  -5.006667E+01  -5.004445E+01  -5.002222E+01  -5.000000E+01
  -5.020000E+01  -5.017778E+01  -5.015556E+01  -5.013334E+01  -5.011111E+01  -5.008889E+01  -5.006667E+01  -5.004445E+01  -5.002222E+01  -5.000000E+01
  -5.020000E+01  -5.017778E+01  -5.015556E+01  -5.013334E+01  -5.011111E+01  -5.008889E+01  -5.006667E+01  -5.004445E+01  -5.002222E+01  -5.000000E+01
  -5.020000E+01  -5.017778E+01  -5.015556E+01  -5.013334E+01  -5.011111E+01  -5.008889E+01  -5.006667E+01  -5.004445E+01  -5.002222E+01  -5.000000E+01
  -5.020000E+01  -5.017778E+01  -5.015556E+01  -5.013334E+01  -5.011111E+01  -5.008889E+01  -5.006667E+01  -5.004445E+01  -5.002222E+01  -5.000000E+01
      1.000000             1  1.000000  SS
