# DIS package for MODFLOW-2005 generated by Flopy 3.9.3
         1        10        10         1         4         2
  0
INTERNAL               1  (10E15.6) -1 #delr                          
   1.000000E+01   1.000000E+01   1.000000E+01   1.000000E+01   1.000000E+01   1.000000E+01   1.000000E+01   1.000000E+01   1.000000E+01   1.000000E+01
INTERNAL               1  (10E15.6) -1 #delc                          
   1.000000E+01   1.000000E+01   1.000000E+01   1.000000E+01   1.000000E+01   1.000000E+01   1.000000E+01   1.000000E+01   1.000000E+01   1.000000E+01
INTERNAL               1  (10E15.6) -1 #model_top                     
   0.000000E+00   0.000000E+00   0.000000E+00   0.000000E+00   0.000000E+00   0.000000E+00   0.000000E+00   0.000000E+00   0.000000E+00   0.000000E+00
   0.000000E+00   0.000000E+00   0.000000E+00   0.000000E+00   0.000000E+00   0.000000E+00   0.000000E+00   0.000000E+00   0.000000E+00   0.000000E+00
   0.000000E+00   0.000000E+00   0.000000E+00   0.000000E+00   0.000000E+00   0.000000E+00   0.000000E+00   0.000000E+00   0.000000E+00   0.000000E+00
   0.000000E+00   0.000000E+00   0.000000E+00   0.000000E+00   0.000000E+00   0.000000E+00   0.000000E+00   0.000000E+00   0.000000E+00   0.000000E+00
   0.000000E+00   0.000000E+00   0.000000E+00   0.000000E+00   0.000000E+00   0.000000E+00   0.000000E+00   0.000000E+00   0.000000E+00   0.000000E+00
   0.000000E+00   0.000000E+00   0.000000E+00   0.000000E+00   0.000000E+00   0.000000E+00   0.000000E+00   0.000000E+00   0.000000E+00   0.000000E+00
   0.000000E+00   0.000000E+00   0.000000E+00   0.000000E+00   0.000000E+00   0.000000E+00   0.000000E+00   0.000000E+00   0.000000E+00   0.000000E+00
   0.000000E+00   0.000000E+00   0.000000E+00   0.000000E+00   0.000000E+00   0.000000E+00   0.000000E+00   0.000000E+00   0.000000E+00   0.000000E+00
   0.000000E+00   0.000000E+00   0.000000E+00   0.000000E+00   0.000000E+00   0.000000E+00   0.000000E+00   0.000000E+00   0.000000E+00   0.000000E+00
   0.000000E+00   0.000000E+00   0.000000E+00   0.000000E+00   0.000000E+00   0.000000E+00   0.000000E+00   0.000000E+00   0.000000E+00   0.000000E+00
INTERNAL               1  (10E15.6) -1 #botm layer 1                  
  -5.000000E+01  -5.000000E+01  -5.000000E+01  -5.000000E+01  -5.000000E+01  -5.000000E+01  -5.000000E+01  -5.000000E+01  -5.000000E+01  -5.000000E+01
  -5.000000E+01  -5.000000E+01  -5.000000E+01  -5.000000E+01  -5.000000E+01  -5.000000E+01  -5.000000E+01  -5.000000E+01  -5.000000E+01  -5.000000E+01
  -5.000000E+01  -5.000000E+01  -5.000000E+01  -5.000000E+01  -5.000000E+01  -5.000000E+01  -5.000000E+01  -5.000000E+01  -5.000000E+01  -5.000000E+01
  -5.000000E+01  -5.000000E+01  -5.000000E+01  -5.000000E+01  -5.000000E+01  -5.000000E+01  -5.000000E+01  -5.000000E+01  -5.000000E+01  -5.000000E+01
  -5.000000E+01  -5.000000E+01  -5.000000E+01  -5.000000E+01  -5.000000E+01  -5.000000E+01  -5.000000E+01  -5.000000E+01  -5.000000E+01  -5.000000E+01
  -5.000000E+01  -5.000000E+01  -5.000000E+01  -5.000000E+01  -5.000000E+01  -5.000000E+01  -5.000000E+01  -5.000000E+01  -5.000000E+01  -5.000000E+01
  -5.000000E+01  -5.000000E+01  -5.000000E+01  -5.000000E+01  -5.000000E+01  -5.000000E+01  -5.000000E+01  -5.000000E+01  -5.000000E+01  -5.000000E+01
  -5.000000E+01  -5.000000E+01  -5.000000E+01  -5.000000E+01  -5.000000E+01  -5.000000E+01  -5.000000E+01  -5.000000E+01  -5.000000E+01  -5.000000E+01
  -5.000000E+01  -5.000000E+01  -5.000000E+01  -5.000000E+01  -5.000000E+01  -5.000000E+01  -5.000000E+01  -5.000000E+01  -5.000000E+01  -5.000000E+01
  -5.000000E+01  -5.000000E+01  -5.000000E+01  -5.000000E+01  -5.000000E+01  -5.000000E+01  -5.000000E+01  -5.000000E+01  -5.000000E+01  -5.000000E+01
      1.000000             1  1.000000  SS
