# Name file for MODFLOW-2005, generated by Flopy version 3.9.3.
#xll:0.0; yll:0.0; rotation:0.0; units:meters; lenuni:2; start_datetime:1-1-1970
LIST               2  structured_barrier.list
DIS               11  structured_barrier.dis
BAS6              13  structured_barrier.bas
LPF               15  structured_barrier.lpf
PCG               27  structured_barrier.pcg
OC                14  structured_barrier.oc
DATA(BINARY)      51  structured_barrier.hds REPLACE
